Version 4
SHEET 1 880 680
WIRE 160 64 96 64
WIRE 96 128 96 64
WIRE 96 352 96 208
FLAG 160 64 Vsign
FLAG 96 352 0
SYMBOL voltage 96 112 R0
WINDOW 123 0 0 Left 0
WINDOW 39 0 0 Left 0
SYMATTR InstName V1
SYMATTR Value SINE(0 5v 4 0)
TEXT 62 376 Left 2 !.tran 1
